data/L/Lines.dss
New Line.line_75603220_4953_4540 Units=km Length=0.045799999237060546 bus1=4540.1.2.3 bus2=4953.1.2.3 switch=n enabled=y phases=3 Linecode=3P_OH_Code1
New Line.line_75603221_5408_4541 Units=km Length=0.014 bus1=4541.1 bus2=5408.1 switch=n enabled=y phases=1 Linecode=1P_Code0
New Line.line_75603237_5187_4554 Units=km Length=0.010600000381469727 bus1=4554.1.2.3 bus2=5187.1.2.3 switch=n enabled=y phases=3 Linecode=3P_OH_Code1
New Line.line_75603238_4540_4555 Units=km Length=0.079 bus1=4555.1.2.3 bus2=4540.1.2.3 switch=n enabled=y phases=3 Linecode=3P_OH_Code1
New Line.line_75603260_4541_4575 Units=km Length=0.03540000152587891 bus1=4575.1.2.3 bus2=4541.1.2.3 switch=n enabled=y phases=3 Linecode=3P_OH_Code1
New Line.line_75603264_5045_4579 Units=km Length=0.020600000381469728 bus1=4579.1.2.3 bus2=5045.1.2.3 switch=n enabled=y phases=3 Linecode=3P_Code4
New Line.line_75603277_4759_4589 Units=km Length=0.04620000076293945 bus1=4589.1.2.3 bus2=4759.1.2.3 switch=n enabled=y phases=3 Linecode=3P_OH_Code1
New Line.line_75603295_5140_4589 Units=km Length=0.009600000381469726 bus1=4589.1.2.3 bus2=5140.1.2.3 switch=n enabled=y phases=3 Linecode=3P_Code4
New Line.line_75603299_4540_4603 Units=km Length=0.026100000381469726 bus1=4603.1 bus2=4540.1 switch=n enabled=y phases=1 Linecode=1P_Code2
New Line.line_75603_4589_4541 Units=km Length=0.053400001525878905 bus1=4541.1.2.3 bus2=4589.1.2.3 switch=n enabled=y phases=3 Linecode=3P_OH_Code1
New Line.line_75603310_4575_4611 Units=km Length=0.04829999923706055 bus1=4611.1.2.3 bus2=4575.1.2.3 switch=n enabled=y phases=3 Linecode=3P_OH_Code1
New Line.line_75603538_5581_4540 Units=km Length=0.023899999618530274 bus1=4540.1 bus2=5581.1 switch=n enabled=y phases=1 Linecode=1P_Code2
New Line.line_75603539_5582_4759 Units=km Length=0.023399999618530273 bus1=4759.1 bus2=5582.1 switch=n enabled=y phases=1 Linecode=1P_Code2
New Line.line_75603540_5583_4575 Units=km Length=0.027799999237060547 bus1=4575.2 bus2=5583.2 switch=n enabled=y phases=1 Linecode=1P_Code2
New Line.line_75603541_5584_4760 Units=km Length=0.027600000381469727 bus1=4760.3 bus2=5584.3 switch=n enabled=y phases=1 Linecode=1P_Code2
New Line.line_75603542_5585_4760 Units=km Length=0.025700000762939455 bus1=4760.1 bus2=5585.1 switch=n enabled=y phases=1 Linecode=1P_Code2
New Line.line_75603543_5586_4579 Units=km Length=0.024600000381469728 bus1=4579.3 bus2=5586.3 switch=n enabled=y phases=1 Linecode=1P_Code2
New Line.line_75603577_5617_4575 Units=km Length=0.025899999618530276 bus1=4575.3 bus2=5617.3 switch=n enabled=y phases=1 Linecode=1P_Code2
New Line.line_75603658_5697_4555 Units=km Length=0.025 bus1=4555.1 bus2=5697.1 switch=n enabled=y phases=1 Linecode=1P_Code2
New Line.line_75603659_5698_4816 Units=km Length=0.019600000381469727 bus1=4816.3 bus2=5698.3 switch=n enabled=y phases=1 Linecode=1P_Code2
New Line.line_75603660_5699_4817 Units=km Length=0.0185 bus1=4817.1 bus2=5699.1 switch=n enabled=y phases=1 Linecode=1P_Code2
New Line.line_75603737_5762_4589 Units=km Length=0.0275 bus1=4589.3 bus2=5762.3 switch=n enabled=y phases=1 Linecode=1P_Code2
New Line.line_75603738_5763_4760 Units=km Length=0.028100000381469727 bus1=4760.1 bus2=5763.1 switch=n enabled=y phases=1 Linecode=1P_Code2
New Line.line_75603756_4817_4611 Units=km Length=0.020600000381469728 bus1=4611.1 bus2=4817.1 switch=n enabled=y phases=1 Linecode=1P_Code2
New Line.line_75603828_4541_4894 Units=km Length=0.023 bus1=4894.3 bus2=4541.3 switch=n enabled=y phases=1 Linecode=1P_Code2
New Line.line_75603888_5860_4555 Units=km Length=0.026799999237060546 bus1=4555.3 bus2=5860.3 switch=n enabled=y phases=1 Linecode=1P_Code2
New Line.line_75603963_4574_4953 Units=km Length=0.025700000762939455 bus1=4953.1.2.3 bus2=4574.1.2.3 switch=n enabled=y phases=3 Linecode=3P_OH_Code1
New Line.line_75604001_5918_4759 Units=km Length=0.022899999618530273 bus1=4759.2 bus2=5918.2 switch=n enabled=y phases=1 Linecode=1P_Code2
New Line.line_75604194_6027_4953 Units=km Length=0.028100000381469727 bus1=4953.3 bus2=6027.3 switch=n enabled=y phases=1 Linecode=1P_Code2
New Line.line_75604211_4953_5043 Units=km Length=0.013699999809265137 bus1=5043.1.2.3 bus2=4953.1.2.3 switch=n enabled=y phases=3 Linecode=3P_Code5
New Line.line_75604217_6037_5045 Units=km Length=0.017399999618530275 bus1=5045.3 bus2=6037.3 switch=n enabled=y phases=1 Linecode=1P_Code2
New Line.line_75604236_6046_4555 Units=km Length=0.029700000762939455 bus1=4555.1 bus2=6046.1 switch=n enabled=y phases=1 Linecode=1P_Code0
New Line.line_75604306_6092_4554 Units=km Length=0.018100000381469725 bus1=4554.1 bus2=6092.1 switch=n enabled=y phases=1 Linecode=1P_Code2
New Line.line_75604500_6194_5140 Units=km Length=0.0155 bus1=5140.3 bus2=6194.3 switch=n enabled=y phases=1 Linecode=1P_Code2
New Line.line_75604561_5187_4760 Units=km Length=0.0360999984741211 bus1=4760.1.2.3 bus2=5187.1.2.3 switch=n enabled=y phases=3 Linecode=3P_OH_Code1
New Line.line_75604568_6228_4554 Units=km Length=0.014899999618530274 bus1=4554.3 bus2=6228.3 switch=n enabled=y phases=1 Linecode=1P_Code2
New Line.line_75604648_4611_5187 Units=km Length=0.04370000076293946 bus1=5187.1.2.3 bus2=4611.1.2.3 switch=n enabled=y phases=3 Linecode=3P_OH_Code1
New Line.line_75604653_4760_4579 Units=km Length=0.03670000076293945 bus1=4579.1.2.3 bus2=4760.1.2.3 switch=n enabled=y phases=3 Linecode=3P_OH_Code1
New Line.line_75604670_4555_4759 Units=km Length=0.04570000076293945 bus1=4759.1.2.3 bus2=4555.1.2.3 switch=n enabled=y phases=3 Linecode=3P_OH_Code1
New Line.line_75604777_4816_4589 Units=km Length=0.015800000190734863 bus1=4589.3 bus2=4816.3 switch=n enabled=y phases=1 Linecode=1P_Code2
New Line.line_75604784_6339_5140 Units=km Length=0.014699999809265138 bus1=5140.1 bus2=6339.1 switch=n enabled=y phases=1 Linecode=1P_Code2
New Line.line_75604797_6345_4817 Units=km Length=0.021100000381469728 bus1=4817.1 bus2=6345.1 switch=n enabled=y phases=1 Linecode=1P_Code2
New Line.line_75604844_6367_4540 Units=km Length=0.025200000762939455 bus1=4540.2 bus2=6367.2 switch=n enabled=y phases=1 Linecode=1P_Code2
New Line.line_75604876_6386_4759 Units=km Length=0.030299999237060546 bus1=4759.2 bus2=6386.2 switch=n enabled=y phases=1 Linecode=1P_Code2
New Line.line_75604885_6392_4611 Units=km Length=0.014399999618530274 bus1=4611.2 bus2=6392.2 switch=n enabled=y phases=1 Linecode=1P_Code0
New Line.line_75604926_6411_4555 Units=km Length=0.031700000762939454 bus1=4555.3 bus2=6411.3 switch=n enabled=y phases=1 Linecode=1P_Code2
New Line.line_75604942_6420_4554 Units=km Length=0.024799999237060548 bus1=4554.1 bus2=6420.1 switch=n enabled=y phases=1 Linecode=1P_Code2
New Line.line_75604948_6425_5045 Units=km Length=0.017899999618530275 bus1=5045.3 bus2=6425.3 switch=n enabled=y phases=1 Linecode=1P_Code2
New Line.line_75605106_6528_4540 Units=km Length=0.01779999923706055 bus1=4540.2 bus2=6528.2 switch=n enabled=y phases=1 Linecode=1P_Code0
New Line.line_75611836_7800_5408 Units=km Length=0.012181610043331889 bus1=5408.1 bus2=7800.1 switch=n enabled=y phases=1 Linecode=1P_Code3
New Line.line_75611838_7802_5043 Units=km Length=0.016782098267011214 bus1=5043.1 bus2=7802.1 switch=n enabled=y phases=1 Linecode=1P_Code3
New Line.line_75611839_7803_6528 Units=km Length=0.014976089776537548 bus1=6528.2 bus2=7803.2 switch=n enabled=y phases=1 Linecode=1P_Code3
New Line.line_75612071_8035_6367 Units=km Length=0.017984879906637892 bus1=6367.2 bus2=8035.2 switch=n enabled=y phases=1 Linecode=1P_Code3
New Line.line_75612072_8036_5408 Units=km Length=0.012181610043331889 bus1=5408.1 bus2=8036.1 switch=n enabled=y phases=1 Linecode=1P_Code3
New Line.line_75612098_8062_6411 Units=km Length=0.014118922692233821 bus1=6411.3 bus2=8062.3 switch=n enabled=y phases=1 Linecode=1P_Code3
New Line.line_75612256_8220_6392 Units=km Length=0.012020529105957842 bus1=6392.2 bus2=8220.2 switch=n enabled=y phases=1 Linecode=1P_Code3
